<routes xmlns:xsi="http://www.w3.org/2001/XMLSchema-instance" xsi:noNamespaceSchemaLocation="http://sumo.dlr.de/xsd/routes_file.xsd">
    <vehicle id="0" depart="0.00">
        <route edges="2/0to2/1 2/1to2/0 2/0to3/0 3/0to3/1" />
    </vehicle>
    <vehicle id="4" depart="4.00">
        <route edges="1/0to0/0 0/0to1/0 1/0to2/0 2/0to2/1" />
    </vehicle>
    <vehicle id="8" depart="8.00">
        <route edges="3/2to2/2 2/2to2/1 2/1to2/0 2/0to3/0 3/0to4/0" />
    </vehicle>
    <vehicle id="12" depart="12.00">
        <route edges="2/3to1/3 1/3to1/2 1/2to1/1 1/1to1/0 1/0to2/0 2/0to3/0" />
    </vehicle>
    <vehicle id="16" depart="16.00">
        <route edges="4/2to4/3 4/3to3/3 3/3to2/3 2/3to2/4" />
    </vehicle>
    <vehicle id="20" depart="20.00">
        <route edges="1/2to1/1 1/1to2/1 2/1to3/1 3/1to3/2" />
    </vehicle>
    <vehicle id="24" depart="24.00">
        <route edges="4/2to3/2 3/2to3/1 3/1to3/0 3/0to2/0" />
    </vehicle>
    <vehicle id="28" depart="28.00">
        <route edges="3/0to2/0 2/0to2/1 2/1to2/2 2/2to2/3 2/3to3/3 3/3to4/3 4/3to3/3" />
    </vehicle>
    <vehicle id="32" depart="32.00">
        <route edges="0/3to0/4 0/4to0/3 0/3to0/2 0/2to0/1 0/1to1/1 1/1to2/1 2/1to3/1" />
    </vehicle>
    <vehicle id="36" depart="36.00">
        <route edges="1/0to0/0 0/0to0/1 0/1to0/2 0/2to1/2 1/2to2/2" />
    </vehicle>
    <vehicle id="40" depart="40.00">
        <route edges="4/4to4/3 4/3to3/3 3/3to3/4 3/4to3/3" />
    </vehicle>
    <vehicle id="44" depart="44.00">
        <route edges="3/1to3/2 3/2to3/3 3/3to4/3" />
    </vehicle>
    <vehicle id="48" depart="48.00">
        <route edges="4/2to4/3 4/3to3/3 3/3to3/2 3/2to2/2" />
    </vehicle>
    <vehicle id="52" depart="52.00">
        <route edges="2/1to3/1 3/1to3/0 3/0to3/1" />
    </vehicle>
    <vehicle id="56" depart="56.00">
        <route edges="0/1to1/1 1/1to1/2 1/2to1/3 1/3to1/4 1/4to0/4" />
    </vehicle>
    <vehicle id="60" depart="60.00">
        <route edges="1/2to2/2 2/2to1/2 1/2to1/1 1/1to2/1" />
    </vehicle>
    <vehicle id="64" depart="64.00">
        <route edges="2/0to2/1 2/1to2/2 2/2to2/3 2/3to2/4 2/4to3/4" />
    </vehicle>
    <vehicle id="68" depart="68.00">
        <route edges="1/0to2/0 2/0to2/1 2/1to2/2 2/2to2/3 2/3to2/4 2/4to3/4 3/4to4/4 4/4to4/3" />
    </vehicle>
    <vehicle id="72" depart="72.00">
        <route edges="4/1to3/1 3/1to2/1 2/1to1/1 1/1to1/2 1/2to1/3 1/3to0/3" />
    </vehicle>
    <vehicle id="76" depart="76.00">
        <route edges="4/1to3/1 3/1to4/1" />
    </vehicle>
    <vehicle id="80" depart="80.00">
        <route edges="3/0to2/0 2/0to1/0 1/0to1/1 1/1to0/1 0/1to0/2 0/2to0/3 0/3to1/3" />
    </vehicle>
    <vehicle id="84" depart="84.00">
        <route edges="4/0to3/0 3/0to3/1 3/1to3/0" />
    </vehicle>
    <vehicle id="88" depart="88.00">
        <route edges="0/1to1/1 1/1to1/2 1/2to1/3 1/3to2/3 2/3to3/3 3/3to4/3 4/3to4/2" />
    </vehicle>
    <vehicle id="92" depart="92.00">
        <route edges="4/2to3/2 3/2to2/2 2/2to1/2 1/2to0/2 0/2to0/1 0/1to0/0" />
    </vehicle>
    <vehicle id="96" depart="96.00">
        <route edges="1/2to1/1 1/1to2/1 2/1to2/2" />
    </vehicle>
    <vehicle id="100" depart="100.00">
        <route edges="2/0to3/0 3/0to3/1 3/1to3/2 3/2to3/3 3/3to3/4 3/4to4/4" />
    </vehicle>
    <vehicle id="104" depart="104.00">
        <route edges="3/0to3/1 3/1to2/1 2/1to1/1 1/1to0/1 0/1to0/2 0/2to0/3" />
    </vehicle>
    <vehicle id="108" depart="108.00">
        <route edges="2/1to3/1 3/1to2/1 2/1to1/1" />
    </vehicle>
    <vehicle id="112" depart="112.00">
        <route edges="4/1to4/2 4/2to3/2" />
    </vehicle>
    <vehicle id="116" depart="116.00">
        <route edges="4/3to3/3 3/3to2/3 2/3to2/2 2/2to2/1 2/1to2/0 2/0to1/0" />
    </vehicle>
    <vehicle id="120" depart="120.00">
        <route edges="3/1to3/0 3/0to2/0 2/0to2/1 2/1to2/2 2/2to2/3 2/3to2/4 2/4to1/4" />
    </vehicle>
    <vehicle id="124" depart="124.00">
        <route edges="3/4to4/4 4/4to3/4 3/4to3/3 3/3to2/3" />
    </vehicle>
    <vehicle id="128" depart="128.00">
        <route edges="0/0to1/0 1/0to2/0 2/0to3/0 3/0to4/0 4/0to3/0" />
    </vehicle>
    <vehicle id="132" depart="132.00">
        <route edges="3/4to3/3 3/3to4/3 4/3to4/2" />
    </vehicle>
    <vehicle id="136" depart="136.00">
        <route edges="2/4to3/4 3/4to4/4 4/4to3/4" />
    </vehicle>
    <vehicle id="140" depart="140.00">
        <route edges="1/0to0/0 0/0to0/1 0/1to0/2 0/2to1/2 1/2to2/2 2/2to3/2 3/2to4/2 4/2to4/1" />
    </vehicle>
    <vehicle id="144" depart="144.00">
        <route edges="0/1to0/2 0/2to0/1 0/1to1/1 1/1to2/1 2/1to3/1 3/1to4/1 4/1to4/0" />
    </vehicle>
    <vehicle id="148" depart="148.00">
        <route edges="4/2to3/2 3/2to2/2 2/2to1/2 1/2to0/2 0/2to0/1 0/1to0/2" />
    </vehicle>
    <vehicle id="152" depart="152.00">
        <route edges="3/4to3/3 3/3to3/4 3/4to2/4" />
    </vehicle>
    <vehicle id="156" depart="156.00">
        <route edges="4/2to4/1 4/1to3/1 3/1to2/1 2/1to2/0 2/0to1/0" />
    </vehicle>
    <vehicle id="160" depart="160.00">
        <route edges="0/4to0/3 0/3to1/3 1/3to2/3 2/3to3/3 3/3to2/3" />
    </vehicle>
    <vehicle id="164" depart="164.00">
        <route edges="3/2to3/3 3/3to2/3 2/3to3/3" />
    </vehicle>
    <vehicle id="168" depart="168.00">
        <route edges="3/4to2/4 2/4to1/4 1/4to1/3 1/3to0/3 0/3to0/2 0/2to0/1 0/1to0/0 0/0to0/1" />
    </vehicle>
    <vehicle id="172" depart="172.00">
        <route edges="4/2to4/1 4/1to3/1 3/1to2/1 2/1to2/0 2/0to3/0" />
    </vehicle>
    <vehicle id="176" depart="176.00">
        <route edges="2/1to3/1 3/1to3/2 3/2to3/1" />
    </vehicle>
    <vehicle id="180" depart="180.00">
        <route edges="1/3to0/3 0/3to1/3 1/3to2/3" />
    </vehicle>
    <vehicle id="184" depart="184.00">
        <route edges="3/2to3/1 3/1to3/2" />
    </vehicle>
    <vehicle id="188" depart="188.00">
        <route edges="4/2to3/2 3/2to2/2 2/2to1/2 1/2to1/1 1/1to2/1" />
    </vehicle>
    <vehicle id="192" depart="192.00">
        <route edges="1/2to2/2 2/2to1/2 1/2to1/3 1/3to1/4" />
    </vehicle>
    <vehicle id="196" depart="196.00">
        <route edges="0/0to1/0 1/0to1/1 1/1to1/2 1/2to2/2 2/2to3/2 3/2to4/2 4/2to4/3" />
    </vehicle>
    <vehicle id="200" depart="200.00">
        <route edges="1/2to2/2 2/2to1/2 1/2to1/1 1/1to1/0" />
    </vehicle>
    <vehicle id="204" depart="204.00">
        <route edges="1/4to1/3 1/3to1/2 1/2to1/1 1/1to1/2" />
    </vehicle>
    <vehicle id="208" depart="208.00">
        <route edges="0/2to0/3 0/3to0/4 0/4to1/4" />
    </vehicle>
    <vehicle id="212" depart="212.00">
        <route edges="4/2to3/2 3/2to3/3 3/3to3/4 3/4to4/4 4/4to3/4" />
    </vehicle>
    <vehicle id="216" depart="216.00">
        <route edges="0/2to0/1 0/1to1/1 1/1to2/1 2/1to1/1" />
    </vehicle>
    <vehicle id="220" depart="220.00">
        <route edges="3/0to3/1 3/1to2/1 2/1to1/1 1/1to0/1 0/1to0/2 0/2to0/3 0/3to0/4" />
    </vehicle>
    <vehicle id="224" depart="224.00">
        <route edges="3/4to3/3 3/3to3/2 3/2to3/1 3/1to3/0" />
    </vehicle>
    <vehicle id="228" depart="228.00">
        <route edges="0/1to1/1 1/1to1/0 1/0to2/0 2/0to3/0" />
    </vehicle>
    <vehicle id="232" depart="232.00">
        <route edges="2/0to2/1 2/1to1/1 1/1to0/1 0/1to1/1" />
    </vehicle>
    <vehicle id="236" depart="236.00">
        <route edges="2/1to2/0 2/0to1/0 1/0to0/0 0/0to0/1" />
    </vehicle>
    <vehicle id="240" depart="240.00">
        <route edges="4/3to4/4 4/4to4/3 4/3to4/2" />
    </vehicle>
    <vehicle id="244" depart="244.00">
        <route edges="1/2to1/3 1/3to1/2 1/2to1/1 1/1to2/1 2/1to3/1 3/1to4/1 4/1to3/1" />
    </vehicle>
    <vehicle id="248" depart="248.00">
        <route edges="2/2to3/2 3/2to2/2 2/2to1/2 1/2to1/3" />
    </vehicle>
    <vehicle id="252" depart="252.00">
        <route edges="3/0to3/1 3/1to2/1 2/1to1/1 1/1to0/1 0/1to0/2 0/2to0/3" />
    </vehicle>
    <vehicle id="256" depart="256.00">
        <route edges="4/0to3/0 3/0to2/0 2/0to1/0" />
    </vehicle>
    <vehicle id="260" depart="260.00">
        <route edges="2/3to3/3 3/3to2/3 2/3to1/3 1/3to1/2 1/2to1/1 1/1to2/1" />
    </vehicle>
    <vehicle id="264" depart="264.00">
        <route edges="3/4to4/4 4/4to4/3 4/3to4/2 4/2to4/3" />
    </vehicle>
    <vehicle id="268" depart="268.00">
        <route edges="2/4to2/3 2/3to2/4 2/4to3/4 3/4to4/4" />
    </vehicle>
    <vehicle id="272" depart="272.00">
        <route edges="2/0to2/1 2/1to2/2 2/2to2/3 2/3to2/4 2/4to3/4 3/4to4/4" />
    </vehicle>
    <vehicle id="276" depart="276.00">
        <route edges="0/1to0/2 0/2to1/2 1/2to2/2 2/2to3/2 3/2to4/2 4/2to4/1" />
    </vehicle>
    <vehicle id="280" depart="280.00">
        <route edges="0/4to0/3 0/3to0/2 0/2to0/1 0/1to0/0 0/0to0/1" />
    </vehicle>
    <vehicle id="284" depart="284.00">
        <route edges="1/2to2/2 2/2to2/1 2/1to2/0 2/0to3/0" />
    </vehicle>
    <vehicle id="288" depart="288.00">
        <route edges="2/3to1/3 1/3to0/3 0/3to0/2 0/2to0/1 0/1to0/0 0/0to0/1" />
    </vehicle>
    <vehicle id="292" depart="292.00">
        <route edges="1/4to1/3 1/3to0/3" />
    </vehicle>
    <vehicle id="296" depart="296.00">
        <route edges="0/2to0/3 0/3to0/2 0/2to1/2 1/2to2/2 2/2to3/2 3/2to3/3" />
    </vehicle>
    <vehicle id="300" depart="300.00">
        <route edges="3/3to3/4 3/4to3/3 3/3to3/2 3/2to3/1 3/1to3/0 3/0to4/0" />
    </vehicle>
    <vehicle id="304" depart="304.00">
        <route edges="0/1to1/1 1/1to0/1 0/1to0/2 0/2to0/3 0/3to0/4 0/4to0/3" />
    </vehicle>
    <vehicle id="308" depart="308.00">
        <route edges="4/3to4/4 4/4to3/4 3/4to2/4 2/4to1/4 1/4to1/3 1/3to0/3 0/3to0/2 0/2to0/1 0/1to0/0" />
    </vehicle>
    <vehicle id="312" depart="312.00">
        <route edges="0/4to1/4 1/4to1/3 1/3to0/3 0/3to0/2 0/2to0/3" />
    </vehicle>
    <vehicle id="316" depart="316.00">
        <route edges="2/2to2/1 2/1to2/0 2/0to3/0 3/0to2/0" />
    </vehicle>
    <vehicle id="320" depart="320.00">
        <route edges="3/2to3/1 3/1to2/1 2/1to2/2 2/2to2/3 2/3to2/2" />
    </vehicle>
    <vehicle id="324" depart="324.00">
        <route edges="2/4to1/4 1/4to1/3 1/3to1/4" />
    </vehicle>
    <vehicle id="328" depart="328.00">
        <route edges="0/1to1/1 1/1to1/2 1/2to1/3 1/3to2/3 2/3to2/4" />
    </vehicle>
    <vehicle id="332" depart="332.00">
        <route edges="0/2to1/2 1/2to1/1 1/1to0/1" />
    </vehicle>
    <vehicle id="336" depart="336.00">
        <route edges="0/4to1/4 1/4to2/4 2/4to3/4 3/4to4/4" />
    </vehicle>
    <vehicle id="340" depart="340.00">
        <route edges="1/1to2/1 2/1to1/1 1/1to0/1 0/1to0/2 0/2to1/2" />
    </vehicle>
    <vehicle id="344" depart="344.00">
        <route edges="3/1to4/1 4/1to4/2 4/2to4/3 4/3to4/4 4/4to3/4" />
    </vehicle>
    <vehicle id="348" depart="348.00">
        <route edges="3/2to3/3 3/3to3/2 3/2to3/1 3/1to4/1 4/1to4/2" />
    </vehicle>
    <vehicle id="352" depart="352.00">
        <route edges="2/3to2/2 2/2to2/3 2/3to2/4 2/4to2/3" />
    </vehicle>
    <vehicle id="356" depart="356.00">
        <route edges="3/0to4/0 4/0to3/0 3/0to3/1 3/1to3/2 3/2to3/3 3/3to2/3" />
    </vehicle>
    <vehicle id="360" depart="360.00">
        <route edges="0/3to0/4 0/4to0/3 0/3to1/3" />
    </vehicle>
    <vehicle id="364" depart="364.00">
        <route edges="4/3to3/3 3/3to3/2 3/2to2/2" />
    </vehicle>
    <vehicle id="368" depart="368.00">
        <route edges="0/1to0/0 0/0to0/1 0/1to0/2 0/2to0/3 0/3to1/3 1/3to2/3 2/3to2/2" />
    </vehicle>
    <vehicle id="372" depart="372.00">
        <route edges="3/4to3/3 3/3to2/3 2/3to1/3 1/3to1/2 1/2to1/1 1/1to1/0 1/0to2/0" />
    </vehicle>
    <vehicle id="376" depart="376.00">
        <route edges="3/2to2/2 2/2to1/2 1/2to1/1 1/1to2/1" />
    </vehicle>
    <vehicle id="380" depart="380.00">
        <route edges="2/0to3/0 3/0to3/1 3/1to4/1 4/1to4/0" />
    </vehicle>
    <vehicle id="384" depart="384.00">
        <route edges="1/4to2/4 2/4to1/4 1/4to0/4 0/4to1/4" />
    </vehicle>
    <vehicle id="388" depart="388.00">
        <route edges="4/2to4/1 4/1to3/1 3/1to2/1 2/1to1/1 1/1to0/1 0/1to0/2 0/2to0/3 0/3to0/4 0/4to0/3" />
    </vehicle>
    <vehicle id="392" depart="392.00">
        <route edges="1/1to1/2 1/2to1/1 1/1to2/1 2/1to3/1 3/1to2/1" />
    </vehicle>
    <vehicle id="396" depart="396.00">
        <route edges="1/3to2/3 2/3to3/3 3/3to4/3 4/3to4/2" />
    </vehicle>
    <vehicle id="400" depart="400.00">
        <route edges="3/2to2/2" />
    </vehicle>
    <vehicle id="404" depart="404.00">
        <route edges="3/2to3/3 3/3to2/3 2/3to2/2 2/2to2/3" />
    </vehicle>
    <vehicle id="408" depart="408.00">
        <route edges="2/4to1/4 1/4to1/3 1/3to2/3 2/3to2/4" />
    </vehicle>
    <vehicle id="412" depart="412.00">
        <route edges="4/3to3/3 3/3to3/4" />
    </vehicle>
    <vehicle id="416" depart="416.00">
        <route edges="0/0to0/1 0/1to0/2 0/2to0/3 0/3to1/3 1/3to1/4 1/4to2/4 2/4to3/4" />
    </vehicle>
    <vehicle id="420" depart="420.00">
        <route edges="2/1to1/1 1/1to1/2 1/2to1/3 1/3to1/4 1/4to0/4" />
    </vehicle>
    <vehicle id="424" depart="424.00">
        <route edges="2/4to1/4 1/4to2/4 2/4to3/4 3/4to4/4" />
    </vehicle>
    <vehicle id="428" depart="428.00">
        <route edges="1/4to0/4 0/4to0/3 0/3to0/2 0/2to0/1 0/1to1/1 1/1to1/0 1/0to2/0 2/0to3/0 3/0to4/0 4/0to4/1" />
    </vehicle>
    <vehicle id="432" depart="432.00">
        <route edges="4/2to4/1 4/1to3/1 3/1to2/1 2/1to1/1 1/1to1/2 1/2to1/3 1/3to1/2" />
    </vehicle>
    <vehicle id="436" depart="436.00">
        <route edges="3/0to4/0 4/0to3/0 3/0to2/0 2/0to1/0" />
    </vehicle>
    <vehicle id="440" depart="440.00">
        <route edges="1/3to1/4 1/4to1/3 1/3to0/3 0/3to0/2 0/2to0/1 0/1to0/0 0/0to1/0" />
    </vehicle>
    <vehicle id="444" depart="444.00">
        <route edges="2/0to3/0 3/0to3/1 3/1to3/2 3/2to3/3 3/3to4/3 4/3to3/3" />
    </vehicle>
    <vehicle id="448" depart="448.00">
        <route edges="0/1to1/1 1/1to0/1 0/1to0/0 0/0to0/1" />
    </vehicle>
    <vehicle id="452" depart="452.00">
        <route edges="2/3to2/4 2/4to1/4 1/4to1/3 1/3to0/3 0/3to0/2 0/2to0/1 0/1to0/0 0/0to1/0" />
    </vehicle>
    <vehicle id="456" depart="456.00">
        <route edges="3/2to3/3 3/3to2/3 2/3to1/3 1/3to1/2 1/2to1/1" />
    </vehicle>
    <vehicle id="460" depart="460.00">
        <route edges="0/0to1/0 1/0to1/1 1/1to1/2 1/2to1/3 1/3to0/3" />
    </vehicle>
    <vehicle id="464" depart="464.00">
        <route edges="3/3to3/4 3/4to2/4 2/4to1/4 1/4to1/3 1/3to0/3 0/3to0/4" />
    </vehicle>
    <vehicle id="468" depart="468.00">
        <route edges="0/4to1/4 1/4to1/3 1/3to2/3 2/3to1/3" />
    </vehicle>
    <vehicle id="472" depart="472.00">
        <route edges="0/3to0/2 0/2to0/1 0/1to1/1 1/1to2/1 2/1to3/1 3/1to3/2" />
    </vehicle>
    <vehicle id="476" depart="476.00">
        <route edges="1/2to1/3 1/3to1/2 1/2to2/2 2/2to2/1" />
    </vehicle>
    <vehicle id="480" depart="480.00">
        <route edges="3/4to3/3 3/3to2/3 2/3to1/3 1/3to0/3 0/3to0/2 0/2to1/2" />
    </vehicle>
    <vehicle id="484" depart="484.00">
        <route edges="2/0to2/1 2/1to1/1 1/1to1/2 1/2to1/3 1/3to1/4 1/4to1/3" />
    </vehicle>
    <vehicle id="488" depart="488.00">
        <route edges="0/2to0/3 0/3to0/2 0/2to0/1 0/1to1/1" />
    </vehicle>
    <vehicle id="492" depart="492.00">
        <route edges="0/3to0/4 0/4to1/4 1/4to2/4 2/4to1/4" />
    </vehicle>
    <vehicle id="496" depart="496.00">
        <route edges="0/2to1/2 1/2to1/3 1/3to2/3 2/3to3/3 3/3to2/3" />
    </vehicle>
    <vehicle id="500" depart="500.00">
        <route edges="2/3to3/3 3/3to2/3 2/3to1/3 1/3to1/2 1/2to1/1 1/1to1/2" />
    </vehicle>
    <vehicle id="504" depart="504.00">
        <route edges="2/2to2/1 2/1to1/1 1/1to0/1 0/1to1/1" />
    </vehicle>
    <vehicle id="508" depart="508.00">
        <route edges="1/0to1/1 1/1to1/0 1/0to0/0" />
    </vehicle>
    <vehicle id="512" depart="512.00">
        <route edges="1/4to2/4 2/4to1/4 1/4to1/3 1/3to1/2 1/2to2/2" />
    </vehicle>
    <vehicle id="516" depart="516.00">
        <route edges="2/3to2/4 2/4to1/4 1/4to1/3 1/3to1/2 1/2to1/1 1/1to0/1" />
    </vehicle>
    <vehicle id="520" depart="520.00">
        <route edges="2/2to1/2 1/2to1/1 1/1to1/0 1/0to2/0" />
    </vehicle>
    <vehicle id="524" depart="524.00">
        <route edges="2/2to3/2 3/2to2/2 2/2to1/2 1/2to1/3" />
    </vehicle>
    <vehicle id="528" depart="528.00">
        <route edges="4/3to4/2 4/2to4/3 4/3to4/4 4/4to4/3" />
    </vehicle>
    <vehicle id="532" depart="532.00">
        <route edges="4/3to3/3 3/3to2/3 2/3to1/3 1/3to1/2 1/2to1/1 1/1to1/0 1/0to1/1" />
    </vehicle>
    <vehicle id="536" depart="536.00">
        <route edges="1/1to1/0 1/0to1/1 1/1to0/1" />
    </vehicle>
    <vehicle id="540" depart="540.00">
        <route edges="3/2to3/3 3/3to2/3 2/3to1/3 1/3to0/3 0/3to0/4 0/4to0/3" />
    </vehicle>
    <vehicle id="544" depart="544.00">
        <route edges="4/3to4/4 4/4to3/4 3/4to4/4" />
    </vehicle>
    <vehicle id="548" depart="548.00">
        <route edges="1/4to0/4 0/4to0/3 0/3to0/4" />
    </vehicle>
    <vehicle id="552" depart="552.00">
        <route edges="4/3to4/2 4/2to4/3 4/3to4/4 4/4to3/4" />
    </vehicle>
    <vehicle id="556" depart="556.00">
        <route edges="1/4to0/4 0/4to0/3 0/3to0/2 0/2to0/1 0/1to1/1 1/1to2/1 2/1to3/1 3/1to4/1" />
    </vehicle>
    <vehicle id="560" depart="560.00">
        <route edges="2/0to1/0 1/0to2/0 2/0to3/0 3/0to4/0 4/0to3/0" />
    </vehicle>
    <vehicle id="564" depart="564.00">
        <route edges="2/1to3/1 3/1to2/1 2/1to2/2 2/2to2/3 2/3to1/3" />
    </vehicle>
    <vehicle id="568" depart="568.00">
        <route edges="4/1to3/1 3/1to2/1 2/1to1/1 1/1to0/1 0/1to0/2 0/2to0/3 0/3to1/3" />
    </vehicle>
    <vehicle id="572" depart="572.00">
        <route edges="4/3to4/4 4/4to3/4 3/4to2/4 2/4to1/4 1/4to1/3 1/3to1/2 1/2to1/1" />
    </vehicle>
    <vehicle id="576" depart="576.00">
        <route edges="0/4to0/3 0/3to1/3" />
    </vehicle>
    <vehicle id="580" depart="580.00">
        <route edges="1/2to0/2 0/2to0/1 0/1to1/1 1/1to2/1 2/1to1/1" />
    </vehicle>
    <vehicle id="584" depart="584.00">
        <route edges="0/1to0/2 0/2to0/1 0/1to1/1 1/1to1/0 1/0to0/0" />
    </vehicle>
    <vehicle id="588" depart="588.00">
        <route edges="4/2to4/1 4/1to3/1 3/1to2/1 2/1to1/1 1/1to0/1 0/1to0/0" />
    </vehicle>
    <vehicle id="592" depart="592.00">
        <route edges="3/0to4/0 4/0to3/0 3/0to2/0 2/0to2/1 2/1to2/0" />
    </vehicle>
    <vehicle id="596" depart="596.00">
        <route edges="4/4to4/3 4/3to3/3 3/3to2/3 2/3to1/3 1/3to1/4 1/4to0/4" />
    </vehicle>
    <vehicle id="600" depart="600.00">
        <route edges="3/3to2/3 2/3to1/3 1/3to1/2 1/2to0/2" />
    </vehicle>
    <vehicle id="604" depart="604.00">
        <route edges="3/2to2/2 2/2to3/2 3/2to3/3" />
    </vehicle>
    <vehicle id="608" depart="608.00">
        <route edges="4/2to4/3 4/3to3/3 3/3to2/3 2/3to1/3 1/3to0/3 0/3to0/2 0/2to0/1 0/1to1/1" />
    </vehicle>
    <vehicle id="612" depart="612.00">
        <route edges="0/0to0/1 0/1to1/1 1/1to1/0 1/0to0/0" />
    </vehicle>
    <vehicle id="616" depart="616.00">
        <route edges="1/0to2/0 2/0to1/0 1/0to1/1 1/1to1/2 1/2to1/3" />
    </vehicle>
    <vehicle id="620" depart="620.00">
        <route edges="4/2to4/3 4/3to3/3" />
    </vehicle>
    <vehicle id="624" depart="624.00">
        <route edges="3/1to4/1 4/1to3/1 3/1to2/1 2/1to1/1 1/1to2/1" />
    </vehicle>
    <vehicle id="628" depart="628.00">
        <route edges="3/1to4/1 4/1to3/1 3/1to3/2" />
    </vehicle>
    <vehicle id="632" depart="632.00">
        <route edges="1/1to0/1 0/1to0/2 0/2to0/3 0/3to1/3 1/3to1/4 1/4to2/4 2/4to3/4 3/4to2/4" />
    </vehicle>
    <vehicle id="636" depart="636.00">
        <route edges="0/2to1/2 1/2to1/3 1/3to1/4 1/4to2/4 2/4to3/4 3/4to4/4 4/4to3/4" />
    </vehicle>
    <vehicle id="640" depart="640.00">
        <route edges="4/1to4/0 4/0to4/1 4/1to4/2 4/2to4/3 4/3to3/3" />
    </vehicle>
    <vehicle id="644" depart="644.00">
        <route edges="0/0to1/0 1/0to1/1 1/1to1/2 1/2to2/2 2/2to3/2 3/2to3/3" />
    </vehicle>
    <vehicle id="648" depart="648.00">
        <route edges="3/4to2/4 2/4to2/3 2/3to2/2 2/2to1/2" />
    </vehicle>
    <vehicle id="652" depart="652.00">
        <route edges="3/1to3/0 3/0to2/0 2/0to1/0 1/0to1/1 1/1to0/1" />
    </vehicle>
    <vehicle id="656" depart="656.00">
        <route edges="3/1to4/1 4/1to4/2 4/2to4/3 4/3to4/4 4/4to3/4" />
    </vehicle>
    <vehicle id="660" depart="660.00">
        <route edges="0/4to1/4 1/4to1/3 1/3to1/2 1/2to1/1 1/1to1/0 1/0to2/0 2/0to3/0" />
    </vehicle>
    <vehicle id="664" depart="664.00">
        <route edges="4/1to4/0 4/0to3/0 3/0to2/0 2/0to1/0 1/0to1/1 1/1to0/1 0/1to0/2 0/2to0/3" />
    </vehicle>
    <vehicle id="668" depart="668.00">
        <route edges="3/1to3/2 3/2to4/2 4/2to3/2" />
    </vehicle>
    <vehicle id="672" depart="672.00">
        <route edges="1/1to1/2 1/2to2/2 2/2to1/2" />
    </vehicle>
    <vehicle id="676" depart="676.00">
        <route edges="3/3to2/3 2/3to1/3 1/3to0/3 0/3to1/3" />
    </vehicle>
    <vehicle id="680" depart="680.00">
        <route edges="4/2to3/2 3/2to3/1 3/1to3/2" />
    </vehicle>
    <vehicle id="684" depart="684.00">
        <route edges="1/0to1/1 1/1to1/2 1/2to1/3 1/3to2/3 2/3to3/3 3/3to4/3 4/3to4/2" />
    </vehicle>
    <vehicle id="688" depart="688.00">
        <route edges="1/1to1/2 1/2to1/3 1/3to2/3 2/3to1/3" />
    </vehicle>
    <vehicle id="692" depart="692.00">
        <route edges="1/4to1/3 1/3to1/4 1/4to2/4 2/4to3/4 3/4to2/4" />
    </vehicle>
    <vehicle id="696" depart="696.00">
        <route edges="4/3to3/3 3/3to2/3 2/3to1/3 1/3to1/2 1/2to1/1 1/1to2/1" />
    </vehicle>
    <vehicle id="700" depart="700.00">
        <route edges="3/1to4/1 4/1to3/1" />
    </vehicle>
    <vehicle id="704" depart="704.00">
        <route edges="1/0to0/0 0/0to1/0" />
    </vehicle>
    <vehicle id="708" depart="708.00">
        <route edges="1/0to2/0 2/0to3/0 3/0to3/1" />
    </vehicle>
    <vehicle id="712" depart="712.00">
        <route edges="2/0to3/0 3/0to2/0 2/0to2/1 2/1to2/2 2/2to2/3 2/3to2/2" />
    </vehicle>
    <vehicle id="716" depart="716.00">
        <route edges="2/4to1/4 1/4to1/3 1/3to1/2 1/2to1/1 1/1to1/0 1/0to2/0 2/0to3/0" />
    </vehicle>
    <vehicle id="720" depart="720.00">
        <route edges="3/2to4/2" />
    </vehicle>
    <vehicle id="724" depart="724.00">
        <route edges="3/2to2/2 2/2to2/1 2/1to2/0 2/0to3/0 3/0to2/0" />
    </vehicle>
    <vehicle id="728" depart="728.00">
        <route edges="4/4to3/4 3/4to2/4 2/4to2/3 2/3to2/2 2/2to2/1 2/1to2/0 2/0to2/1" />
    </vehicle>
    <vehicle id="732" depart="732.00">
        <route edges="0/3to0/2 0/2to0/1 0/1to1/1 1/1to2/1 2/1to2/0" />
    </vehicle>
    <vehicle id="736" depart="736.00">
        <route edges="0/3to0/4 0/4to1/4 1/4to2/4 2/4to1/4" />
    </vehicle>
    <vehicle id="740" depart="740.00">
        <route edges="2/4to3/4 3/4to2/4 2/4to2/3 2/3to2/4" />
    </vehicle>
    <vehicle id="744" depart="744.00">
        <route edges="3/2to3/3 3/3to2/3 2/3to2/4 2/4to3/4" />
    </vehicle>
    <vehicle id="748" depart="748.00">
        <route edges="4/0to3/0 3/0to2/0 2/0to2/1 2/1to2/2 2/2to2/3 2/3to2/4 2/4to1/4" />
    </vehicle>
    <vehicle id="752" depart="752.00">
        <route edges="3/1to4/1 4/1to3/1 3/1to3/0 3/0to3/1" />
    </vehicle>
    <vehicle id="756" depart="756.00">
        <route edges="2/2to1/2 1/2to1/3 1/3to1/4" />
    </vehicle>
    <vehicle id="760" depart="760.00">
        <route edges="0/1to0/2 0/2to0/1 0/1to1/1 1/1to1/2" />
    </vehicle>
    <vehicle id="764" depart="764.00">
        <route edges="1/4to0/4 0/4to0/3 0/3to0/2 0/2to0/1 0/1to1/1 1/1to2/1 2/1to3/1 3/1to2/1" />
    </vehicle>
    <vehicle id="768" depart="768.00">
        <route edges="1/1to2/1 2/1to2/2 2/2to2/3 2/3to3/3 3/3to2/3" />
    </vehicle>
    <vehicle id="772" depart="772.00">
        <route edges="3/4to4/4 4/4to3/4 3/4to3/3 3/3to3/2 3/2to4/2" />
    </vehicle>
    <vehicle id="776" depart="776.00">
        <route edges="4/1to4/0 4/0to4/1 4/1to4/2 4/2to3/2" />
    </vehicle>
    <vehicle id="780" depart="780.00">
        <route edges="2/1to2/0 2/0to1/0 1/0to0/0 0/0to1/0" />
    </vehicle>
    <vehicle id="784" depart="784.00">
        <route edges="3/2to4/2 4/2to3/2 3/2to2/2 2/2to1/2 1/2to0/2 0/2to0/1 0/1to0/2" />
    </vehicle>
    <vehicle id="788" depart="788.00">
        <route edges="4/0to3/0 3/0to2/0 2/0to1/0 1/0to1/1 1/1to1/2 1/2to1/3 1/3to1/4" />
    </vehicle>
    <vehicle id="792" depart="792.00">
        <route edges="3/4to3/3 3/3to2/3 2/3to1/3 1/3to1/2" />
    </vehicle>
    <vehicle id="796" depart="796.00">
        <route edges="1/1to1/2 1/2to0/2 0/2to0/3 0/3to0/4 0/4to1/4" />
    </vehicle>
    <vehicle id="800" depart="800.00">
        <route edges="4/3to4/4 4/4to3/4 3/4to3/3 3/3to2/3" />
    </vehicle>
    <vehicle id="804" depart="804.00">
        <route edges="1/1to2/1 2/1to2/0 2/0to3/0" />
    </vehicle>
    <vehicle id="808" depart="808.00">
        <route edges="2/1to1/1 1/1to1/2 1/2to2/2 2/2to1/2" />
    </vehicle>
    <vehicle id="812" depart="812.00">
        <route edges="0/4to1/4 1/4to1/3 1/3to1/2 1/2to1/1 1/1to1/0 1/0to2/0 2/0to3/0" />
    </vehicle>
    <vehicle id="816" depart="816.00">
        <route edges="4/3to3/3 3/3to2/3 2/3to1/3 1/3to0/3 0/3to0/2 0/2to0/1 0/1to0/0 0/0to1/0" />
    </vehicle>
    <vehicle id="820" depart="820.00">
        <route edges="4/3to4/4 4/4to3/4 3/4to2/4 2/4to2/3 2/3to2/2 2/2to2/1 2/1to1/1" />
    </vehicle>
    <vehicle id="824" depart="824.00">
        <route edges="0/0to1/0 1/0to1/1 1/1to1/2 1/2to2/2" />
    </vehicle>
    <vehicle id="828" depart="828.00">
        <route edges="4/1to4/0 4/0to3/0 3/0to3/1 3/1to3/2 3/2to2/2" />
    </vehicle>
    <vehicle id="832" depart="832.00">
        <route edges="1/0to2/0 2/0to2/1 2/1to2/2 2/2to2/3 2/3to3/3 3/3to3/4" />
    </vehicle>
    <vehicle id="836" depart="836.00">
        <route edges="4/2to4/1 4/1to3/1 3/1to2/1 2/1to1/1 1/1to1/2 1/2to1/3 1/3to2/3" />
    </vehicle>
    <vehicle id="840" depart="840.00">
        <route edges="1/2to0/2 0/2to1/2" />
    </vehicle>
    <vehicle id="844" depart="844.00">
        <route edges="4/0to4/1 4/1to3/1 3/1to2/1 2/1to2/2 2/2to2/3 2/3to2/4 2/4to2/3" />
    </vehicle>
    <vehicle id="848" depart="848.00">
        <route edges="3/2to3/3 3/3to2/3 2/3to2/2 2/2to2/1 2/1to2/0" />
    </vehicle>
    <vehicle id="852" depart="852.00">
        <route edges="0/2to1/2 1/2to1/1 1/1to1/0 1/0to2/0 2/0to3/0" />
    </vehicle>
    <vehicle id="856" depart="856.00">
        <route edges="1/1to1/2 1/2to2/2 2/2to2/3" />
    </vehicle>
    <vehicle id="860" depart="860.00">
        <route edges="0/3to0/2 0/2to0/3 0/3to1/3 1/3to2/3 2/3to3/3" />
    </vehicle>
    <vehicle id="864" depart="864.00">
        <route edges="2/2to3/2 3/2to2/2 2/2to1/2 1/2to1/3 1/3to1/2" />
    </vehicle>
    <vehicle id="868" depart="868.00">
        <route edges="0/1to0/0 0/0to0/1 0/1to0/2 0/2to1/2 1/2to2/2" />
    </vehicle>
    <vehicle id="872" depart="872.00">
        <route edges="1/3to1/2 1/2to2/2 2/2to2/3" />
    </vehicle>
    <vehicle id="876" depart="876.00">
        <route edges="1/1to1/2 1/2to1/1 1/1to2/1 2/1to3/1 3/1to4/1 4/1to4/2" />
    </vehicle>
    <vehicle id="880" depart="880.00">
        <route edges="0/2to1/2 1/2to1/1 1/1to1/0 1/0to1/1" />
    </vehicle>
    <vehicle id="884" depart="884.00">
        <route edges="1/0to1/1 1/1to1/2 1/2to1/3 1/3to2/3 2/3to1/3" />
    </vehicle>
    <vehicle id="888" depart="888.00">
        <route edges="1/3to1/2 1/2to2/2 2/2to2/1" />
    </vehicle>
    <vehicle id="892" depart="892.00">
        <route edges="0/0to0/1 0/1to1/1 1/1to1/2" />
    </vehicle>
    <vehicle id="896" depart="896.00">
        <route edges="3/3to3/4 3/4to2/4 2/4to1/4 1/4to1/3" />
    </vehicle>
    <vehicle id="900" depart="900.00">
        <route edges="2/3to3/3 3/3to2/3 2/3to1/3 1/3to0/3 0/3to0/4" />
    </vehicle>
    <vehicle id="904" depart="904.00">
        <route edges="3/3to2/3 2/3to2/2 2/2to2/1 2/1to3/1 3/1to2/1" />
    </vehicle>
    <vehicle id="908" depart="908.00">
        <route edges="4/0to3/0 3/0to3/1 3/1to3/2 3/2to3/3 3/3to4/3 4/3to4/2" />
    </vehicle>
    <vehicle id="912" depart="912.00">
        <route edges="3/2to3/3 3/3to2/3 2/3to1/3 1/3to1/2" />
    </vehicle>
    <vehicle id="916" depart="916.00">
        <route edges="1/0to1/1 1/1to1/0 1/0to2/0 2/0to3/0 3/0to3/1" />
    </vehicle>
    <vehicle id="920" depart="920.00">
        <route edges="0/2to0/1 0/1to0/2 0/2to1/2 1/2to1/3" />
    </vehicle>
    <vehicle id="924" depart="924.00">
        <route edges="3/1to3/0 3/0to2/0 2/0to1/0 1/0to1/1 1/1to1/2 1/2to1/3 1/3to1/4 1/4to1/3" />
    </vehicle>
    <vehicle id="928" depart="928.00">
        <route edges="0/3to1/3 1/3to1/2 1/2to2/2 2/2to3/2 3/2to2/2" />
    </vehicle>
    <vehicle id="932" depart="932.00">
        <route edges="3/1to2/1 2/1to2/2 2/2to3/2 3/2to3/3" />
    </vehicle>
    <vehicle id="936" depart="936.00">
        <route edges="0/1to0/0 0/0to0/1 0/1to0/2 0/2to0/3 0/3to1/3" />
    </vehicle>
    <vehicle id="940" depart="940.00">
        <route edges="0/1to1/1 1/1to0/1 0/1to0/2 0/2to0/3 0/3to0/4 0/4to0/3" />
    </vehicle>
    <vehicle id="944" depart="944.00">
        <route edges="2/3to3/3 3/3to3/2 3/2to3/1 3/1to3/0 3/0to4/0 4/0to3/0" />
    </vehicle>
    <vehicle id="948" depart="948.00">
        <route edges="0/1to0/0 0/0to0/1 0/1to0/2 0/2to1/2 1/2to1/3" />
    </vehicle>
    <vehicle id="952" depart="952.00">
        <route edges="4/4to3/4 3/4to3/3 3/3to3/2 3/2to3/1 3/1to2/1" />
    </vehicle>
    <vehicle id="956" depart="956.00">
        <route edges="1/4to0/4 0/4to0/3 0/3to0/2 0/2to0/1 0/1to1/1 1/1to1/0 1/0to2/0 2/0to3/0 3/0to2/0" />
    </vehicle>
    <vehicle id="960" depart="960.00">
        <route edges="4/2to4/1 4/1to3/1 3/1to2/1 2/1to1/1 1/1to1/2 1/2to1/3 1/3to1/4" />
    </vehicle>