<routes xmlns:xsi="http://www.w3.org/2001/XMLSchema-instance" xsi:noNamespaceSchemaLocation="http://sumo.dlr.de/xsd/routes_file.xsd">
    <vehicle id="0" depart="0.00">
        <route edges="2/0to2/1 2/1to2/0 2/0to3/0 3/0to3/1" />
    </vehicle>
    <vehicle id="2" depart="2.00">
        <route edges="1/1to1/0 1/0to1/1 1/1to1/2 1/2to1/3 1/3to2/3 2/3to2/4" />
    </vehicle>
    <vehicle id="4" depart="4.00">
        <route edges="1/0to0/0 0/0to1/0 1/0to2/0 2/0to2/1" />
    </vehicle>
    <vehicle id="6" depart="6.00">
        <route edges="0/1to0/0 0/0to0/1 0/1to0/2 0/2to1/2 1/2to2/2 2/2to3/2 3/2to3/3" />
    </vehicle>
    <vehicle id="8" depart="8.00">
        <route edges="3/2to2/2 2/2to2/1 2/1to2/0 2/0to3/0 3/0to4/0" />
    </vehicle>
    <vehicle id="10" depart="10.00">
        <route edges="3/0to3/1 3/1to2/1 2/1to1/1 1/1to0/1 0/1to0/2 0/2to0/3" />
    </vehicle>
    <vehicle id="12" depart="12.00">
        <route edges="2/3to1/3 1/3to1/2 1/2to1/1 1/1to1/0 1/0to2/0 2/0to3/0" />
    </vehicle>
    <vehicle id="14" depart="14.00">
        <route edges="3/1to4/1 4/1to3/1 3/1to3/2 3/2to3/1" />
    </vehicle>
    <vehicle id="16" depart="16.00">
        <route edges="4/2to4/3 4/3to3/3 3/3to2/3 2/3to2/4" />
    </vehicle>
    <vehicle id="18" depart="18.00">
        <route edges="2/4to1/4 1/4to1/3 1/3to2/3 2/3to1/3" />
    </vehicle>
    <vehicle id="20" depart="20.00">
        <route edges="1/2to1/1 1/1to2/1 2/1to3/1 3/1to3/2" />
    </vehicle>
    <vehicle id="22" depart="22.00">
        <route edges="1/0to2/0 2/0to2/1 2/1to2/2 2/2to3/2 3/2to3/3" />
    </vehicle>
    <vehicle id="24" depart="24.00">
        <route edges="4/2to3/2 3/2to3/1 3/1to3/0 3/0to2/0" />
    </vehicle>
    <vehicle id="26" depart="26.00">
        <route edges="0/4to0/3 0/3to0/2 0/2to0/1 0/1to1/1 1/1to2/1 2/1to3/1 3/1to3/2" />
    </vehicle>
    <vehicle id="28" depart="28.00">
        <route edges="3/0to2/0 2/0to2/1 2/1to2/2 2/2to2/3 2/3to3/3 3/3to4/3 4/3to3/3" />
    </vehicle>
    <vehicle id="30" depart="30.00">
        <route edges="1/1to1/0 1/0to2/0 2/0to2/1" />
    </vehicle>
    <vehicle id="32" depart="32.00">
        <route edges="0/3to0/4 0/4to0/3 0/3to0/2 0/2to0/1 0/1to1/1 1/1to2/1 2/1to3/1" />
    </vehicle>
    <vehicle id="34" depart="34.00">
        <route edges="4/2to4/1 4/1to3/1 3/1to3/2 3/2to3/3 3/3to3/4 3/4to2/4" />
    </vehicle>
    <vehicle id="36" depart="36.00">
        <route edges="1/0to0/0 0/0to0/1 0/1to0/2 0/2to1/2 1/2to2/2" />
    </vehicle>
    <vehicle id="38" depart="38.00">
        <route edges="3/2to3/1 3/1to3/0 3/0to4/0 4/0to4/1" />
    </vehicle>
    <vehicle id="40" depart="40.00">
        <route edges="4/4to4/3 4/3to3/3 3/3to3/4 3/4to3/3" />
    </vehicle>
    <vehicle id="42" depart="42.00">
        <route edges="0/0to0/1 0/1to1/1 1/1to1/0" />
    </vehicle>
    <vehicle id="44" depart="44.00">
        <route edges="3/1to3/2 3/2to3/3 3/3to4/3" />
    </vehicle>
    <vehicle id="46" depart="46.00">
        <route edges="3/0to4/0 4/0to3/0 3/0to2/0 2/0to2/1 2/1to2/2 2/2to2/1" />
    </vehicle>
    <vehicle id="48" depart="48.00">
        <route edges="4/2to4/3 4/3to3/3 3/3to3/2 3/2to2/2" />
    </vehicle>
    <vehicle id="50" depart="50.00">
        <route edges="2/0to1/0 1/0to1/1 1/1to1/2 1/2to2/2 2/2to3/2 3/2to3/3" />
    </vehicle>
    <vehicle id="52" depart="52.00">
        <route edges="2/1to3/1 3/1to3/0 3/0to3/1" />
    </vehicle>
    <vehicle id="54" depart="54.00">
        <route edges="1/4to1/3 1/3to1/2 1/2to1/1 1/1to2/1 2/1to3/1 3/1to4/1 4/1to4/0" />
    </vehicle>
    <vehicle id="56" depart="56.00">
        <route edges="0/1to1/1 1/1to1/2 1/2to1/3 1/3to1/4 1/4to0/4" />
    </vehicle>
    <vehicle id="58" depart="58.00">
        <route edges="4/0to4/1 4/1to3/1 3/1to2/1 2/1to1/1 1/1to1/0" />
    </vehicle>
    <vehicle id="60" depart="60.00">
        <route edges="1/2to2/2 2/2to1/2 1/2to1/1 1/1to2/1" />
    </vehicle>
    <vehicle id="62" depart="62.00">
        <route edges="2/0to3/0 3/0to2/0 2/0to1/0 1/0to1/1 1/1to0/1 0/1to0/2 0/2to0/3 0/3to0/4 0/4to1/4" />
    </vehicle>
    <vehicle id="64" depart="64.00">
        <route edges="2/0to2/1 2/1to2/2 2/2to2/3 2/3to2/4 2/4to3/4" />
    </vehicle>
    <vehicle id="66" depart="66.00">
        <route edges="4/4to4/3 4/3to3/3 3/3to3/2 3/2to3/1 3/1to3/0 3/0to2/0" />
    </vehicle>
    <vehicle id="68" depart="68.00">
        <route edges="1/0to2/0 2/0to2/1 2/1to2/2 2/2to2/3 2/3to2/4 2/4to3/4 3/4to4/4 4/4to4/3" />
    </vehicle>
    <vehicle id="70" depart="70.00">
        <route edges="3/3to3/4 3/4to3/3 3/3to3/2 3/2to3/1 3/1to2/1" />
    </vehicle>
    <vehicle id="72" depart="72.00">
        <route edges="4/1to3/1 3/1to2/1 2/1to1/1 1/1to1/2 1/2to1/3 1/3to0/3" />
    </vehicle>
    <vehicle id="74" depart="74.00">
        <route edges="2/0to3/0 3/0to2/0 2/0to1/0 1/0to0/0 0/0to1/0" />
    </vehicle>
    <vehicle id="76" depart="76.00">
        <route edges="4/1to3/1 3/1to4/1" />
    </vehicle>
    <vehicle id="78" depart="78.00">
        <route edges="1/2to1/3 1/3to0/3 0/3to0/2 0/2to0/1" />
    </vehicle>
    <vehicle id="80" depart="80.00">
        <route edges="3/0to2/0 2/0to1/0 1/0to1/1 1/1to0/1 0/1to0/2 0/2to0/3 0/3to1/3" />
    </vehicle>
    <vehicle id="82" depart="82.00">
        <route edges="2/4to3/4 3/4to3/3 3/3to3/2 3/2to3/1 3/1to3/2" />
    </vehicle>
    <vehicle id="84" depart="84.00">
        <route edges="4/0to3/0 3/0to3/1 3/1to3/0" />
    </vehicle>
    <vehicle id="86" depart="86.00">
        <route edges="4/1to4/0 4/0to3/0 3/0to2/0 2/0to1/0 1/0to1/1 1/1to1/2 1/2to1/3 1/3to2/3" />
    </vehicle>
    <vehicle id="88" depart="88.00">
        <route edges="0/1to1/1 1/1to1/2 1/2to1/3 1/3to2/3 2/3to3/3 3/3to4/3 4/3to4/2" />
    </vehicle>
    <vehicle id="90" depart="90.00">
        <route edges="1/1to2/1 2/1to2/2 2/2to2/3 2/3to2/4 2/4to3/4 3/4to2/4" />
    </vehicle>
    <vehicle id="92" depart="92.00">
        <route edges="4/2to3/2 3/2to2/2 2/2to1/2 1/2to0/2 0/2to0/1 0/1to0/0" />
    </vehicle>
    <vehicle id="94" depart="94.00">
        <route edges="0/4to0/3 0/3to0/2 0/2to0/1 0/1to1/1 1/1to1/0 1/0to2/0 2/0to3/0 3/0to3/1" />
    </vehicle>
    <vehicle id="96" depart="96.00">
        <route edges="1/2to1/1 1/1to2/1 2/1to2/2" />
    </vehicle>
    <vehicle id="98" depart="98.00">
        <route edges="2/3to2/2 2/2to2/3 2/3to2/4" />
    </vehicle>
    <vehicle id="100" depart="100.00">
        <route edges="2/0to3/0 3/0to3/1 3/1to3/2 3/2to3/3 3/3to3/4 3/4to4/4" />
    </vehicle>
    <vehicle id="102" depart="102.00">
        <route edges="2/2to1/2 1/2to0/2 0/2to0/3 0/3to0/2" />
    </vehicle>
    <vehicle id="104" depart="104.00">
        <route edges="3/0to3/1 3/1to2/1 2/1to1/1 1/1to0/1 0/1to0/2 0/2to0/3" />
    </vehicle>
    <vehicle id="106" depart="106.00">
        <route edges="4/4to3/4 3/4to2/4 2/4to2/3 2/3to2/2 2/2to3/2" />
    </vehicle>
    <vehicle id="108" depart="108.00">
        <route edges="2/1to3/1 3/1to2/1 2/1to1/1" />
    </vehicle>
    <vehicle id="110" depart="110.00">
        <route edges="3/4to2/4 2/4to2/3 2/3to2/2 2/2to3/2" />
    </vehicle>
    <vehicle id="112" depart="112.00">
        <route edges="4/1to4/2 4/2to3/2" />
    </vehicle>
    <vehicle id="114" depart="114.00">
        <route edges="1/0to1/1 1/1to0/1 0/1to1/1" />
    </vehicle>
    <vehicle id="116" depart="116.00">
        <route edges="4/3to3/3 3/3to2/3 2/3to2/2 2/2to2/1 2/1to2/0 2/0to1/0" />
    </vehicle>
    <vehicle id="118" depart="118.00">
        <route edges="2/4to1/4 1/4to1/3 1/3to1/2" />
    </vehicle>
    <vehicle id="120" depart="120.00">
        <route edges="3/1to3/0 3/0to2/0 2/0to2/1 2/1to2/2 2/2to2/3 2/3to2/4 2/4to1/4" />
    </vehicle>
    <vehicle id="122" depart="122.00">
        <route edges="4/2to3/2 3/2to3/3 3/3to4/3 4/3to4/2" />
    </vehicle>
    <vehicle id="124" depart="124.00">
        <route edges="3/4to4/4 4/4to3/4 3/4to3/3 3/3to2/3" />
    </vehicle>
    <vehicle id="126" depart="126.00">
        <route edges="2/3to2/2 2/2to1/2 1/2to1/1 1/1to1/2" />
    </vehicle>
    <vehicle id="128" depart="128.00">
        <route edges="0/0to1/0 1/0to2/0 2/0to3/0 3/0to4/0 4/0to3/0" />
    </vehicle>
    <vehicle id="130" depart="130.00">
        <route edges="4/1to3/1 3/1to2/1 2/1to2/2" />
    </vehicle>
    <vehicle id="132" depart="132.00">
        <route edges="3/4to3/3 3/3to4/3 4/3to4/2" />
    </vehicle>
    <vehicle id="134" depart="134.00">
        <route edges="2/2to2/3 2/3to1/3 1/3to0/3 0/3to0/2 0/2to0/1 0/1to0/0 0/0to0/1" />
    </vehicle>
    <vehicle id="136" depart="136.00">
        <route edges="2/4to3/4 3/4to4/4 4/4to3/4" />
    </vehicle>
    <vehicle id="138" depart="138.00">
        <route edges="0/0to1/0 1/0to1/1 1/1to1/2 1/2to1/3 1/3to2/3 2/3to3/3 3/3to4/3" />
    </vehicle>
    <vehicle id="140" depart="140.00">
        <route edges="1/0to0/0 0/0to0/1 0/1to0/2 0/2to1/2 1/2to2/2 2/2to3/2 3/2to4/2 4/2to4/1" />
    </vehicle>
    <vehicle id="142" depart="142.00">
        <route edges="2/1to2/2 2/2to1/2 1/2to0/2 0/2to0/1 0/1to0/0 0/0to0/1" />
    </vehicle>
    <vehicle id="144" depart="144.00">
        <route edges="0/1to0/2 0/2to0/1 0/1to1/1 1/1to2/1 2/1to3/1 3/1to4/1 4/1to4/0" />
    </vehicle>
    <vehicle id="146" depart="146.00">
        <route edges="4/1to4/0 4/0to3/0 3/0to2/0 2/0to3/0" />
    </vehicle>
    <vehicle id="148" depart="148.00">
        <route edges="4/2to3/2 3/2to2/2 2/2to1/2 1/2to0/2 0/2to0/1 0/1to0/2" />
    </vehicle>
    <vehicle id="150" depart="150.00">
        <route edges="2/0to2/1 2/1to2/2 2/2to2/3 2/3to3/3 3/3to4/3 4/3to3/3" />
    </vehicle>
    <vehicle id="152" depart="152.00">
        <route edges="3/4to3/3 3/3to3/4 3/4to2/4" />
    </vehicle>
    <vehicle id="154" depart="154.00">
        <route edges="3/1to3/2 3/2to2/2 2/2to1/2 1/2to0/2 0/2to0/3 0/3to1/3" />
    </vehicle>
    <vehicle id="156" depart="156.00">
        <route edges="4/2to4/1 4/1to3/1 3/1to2/1 2/1to2/0 2/0to1/0" />
    </vehicle>
    <vehicle id="158" depart="158.00">
        <route edges="2/1to2/2 2/2to1/2 1/2to1/3 1/3to1/4 1/4to2/4" />
    </vehicle>
    <vehicle id="160" depart="160.00">
        <route edges="0/4to0/3 0/3to1/3 1/3to2/3 2/3to3/3 3/3to2/3" />
    </vehicle>
    <vehicle id="162" depart="162.00">
        <route edges="4/4to3/4 3/4to2/4 2/4to1/4 1/4to1/3 1/3to1/2" />
    </vehicle>
    <vehicle id="164" depart="164.00">
        <route edges="3/2to3/3 3/3to2/3 2/3to3/3" />
    </vehicle>
    <vehicle id="166" depart="166.00">
        <route edges="2/1to1/1 1/1to1/2 1/2to1/3 1/3to2/3 2/3to1/3" />
    </vehicle>
    <vehicle id="168" depart="168.00">
        <route edges="3/4to2/4 2/4to1/4 1/4to1/3 1/3to0/3 0/3to0/2 0/2to0/1 0/1to0/0 0/0to0/1" />
    </vehicle>
    <vehicle id="170" depart="170.00">
        <route edges="3/2to2/2 2/2to1/2 1/2to1/1 1/1to1/0 1/0to1/1" />
    </vehicle>
    <vehicle id="172" depart="172.00">
        <route edges="4/2to4/1 4/1to3/1 3/1to2/1 2/1to2/0 2/0to3/0" />
    </vehicle>
    <vehicle id="174" depart="174.00">
        <route edges="2/0to1/0 1/0to1/1 1/1to1/2 1/2to1/3 1/3to1/2" />
    </vehicle>
    <vehicle id="176" depart="176.00">
        <route edges="2/1to3/1 3/1to3/2 3/2to3/1" />
    </vehicle>
    <vehicle id="178" depart="178.00">
        <route edges="3/1to2/1 2/1to2/2 2/2to2/3 2/3to3/3 3/3to4/3" />
    </vehicle>
    <vehicle id="180" depart="180.00">
        <route edges="1/3to0/3 0/3to1/3 1/3to2/3" />
    </vehicle>
    <vehicle id="182" depart="182.00">
        <route edges="4/2to3/2 3/2to4/2 4/2to4/1" />
    </vehicle>
    <vehicle id="184" depart="184.00">
        <route edges="3/2to3/1 3/1to3/2" />
    </vehicle>
    <vehicle id="186" depart="186.00">
        <route edges="2/0to3/0 3/0to2/0 2/0to2/1 2/1to2/2 2/2to1/2" />
    </vehicle>
    <vehicle id="188" depart="188.00">
        <route edges="4/2to3/2 3/2to2/2 2/2to1/2 1/2to1/1 1/1to2/1" />
    </vehicle>
    <vehicle id="190" depart="190.00">
        <route edges="2/3to2/2 2/2to1/2 1/2to0/2 0/2to0/1 0/1to1/1" />
    </vehicle>
    <vehicle id="192" depart="192.00">
        <route edges="1/2to2/2 2/2to1/2 1/2to1/3 1/3to1/4" />
    </vehicle>
    <vehicle id="194" depart="194.00">
        <route edges="0/0to1/0 1/0to1/1 1/1to1/2 1/2to1/3 1/3to2/3 2/3to2/4" />
    </vehicle>
    <vehicle id="196" depart="196.00">
        <route edges="0/0to1/0 1/0to1/1 1/1to1/2 1/2to2/2 2/2to3/2 3/2to4/2 4/2to4/3" />
    </vehicle>
    <vehicle id="198" depart="198.00">
        <route edges="3/0to4/0 4/0to3/0 3/0to2/0 2/0to1/0 1/0to1/1 1/1to1/2 1/2to1/3 1/3to1/4" />
    </vehicle>
    <vehicle id="200" depart="200.00">
        <route edges="1/2to2/2 2/2to1/2 1/2to1/1 1/1to1/0" />
    </vehicle>
    <vehicle id="202" depart="202.00">
        <route edges="1/3to0/3 0/3to1/3 1/3to1/4 1/4to2/4 2/4to3/4 3/4to4/4 4/4to3/4" />
    </vehicle>
    <vehicle id="204" depart="204.00">
        <route edges="1/4to1/3 1/3to1/2 1/2to1/1 1/1to1/2" />
    </vehicle>
    <vehicle id="206" depart="206.00">
        <route edges="2/1to2/0 2/0to2/1 2/1to2/2 2/2to3/2 3/2to2/2" />
    </vehicle>
    <vehicle id="208" depart="208.00">
        <route edges="0/2to0/3 0/3to0/4 0/4to1/4" />
    </vehicle>
    <vehicle id="210" depart="210.00">
        <route edges="0/3to0/2 0/2to0/3 0/3to1/3 1/3to1/4 1/4to2/4 2/4to1/4" />
    </vehicle>
    <vehicle id="212" depart="212.00">
        <route edges="4/2to3/2 3/2to3/3 3/3to3/4 3/4to4/4 4/4to3/4" />
    </vehicle>
    <vehicle id="214" depart="214.00">
        <route edges="2/0to2/1 2/1to2/2 2/2to2/3 2/3to3/3 3/3to4/3" />
    </vehicle>
    <vehicle id="216" depart="216.00">
        <route edges="0/2to0/1 0/1to1/1 1/1to2/1 2/1to1/1" />
    </vehicle>
    <vehicle id="218" depart="218.00">
        <route edges="1/1to1/0 1/0to1/1 1/1to1/2" />
    </vehicle>
    <vehicle id="220" depart="220.00">
        <route edges="3/0to3/1 3/1to2/1 2/1to1/1 1/1to0/1 0/1to0/2 0/2to0/3 0/3to0/4" />
    </vehicle>
    <vehicle id="222" depart="222.00">
        <route edges="1/1to1/2 1/2to1/3 1/3to2/3" />
    </vehicle>
    <vehicle id="224" depart="224.00">
        <route edges="3/4to3/3 3/3to3/2 3/2to3/1 3/1to3/0" />
    </vehicle>
    <vehicle id="226" depart="226.00">
        <route edges="1/4to1/3 1/3to1/2 1/2to1/1 1/1to2/1" />
    </vehicle>
    <vehicle id="228" depart="228.00">
        <route edges="0/1to1/1 1/1to1/0 1/0to2/0 2/0to3/0" />
    </vehicle>
    <vehicle id="230" depart="230.00">
        <route edges="3/2to3/1 3/1to3/0 3/0to4/0" />
    </vehicle>
    <vehicle id="232" depart="232.00">
        <route edges="2/0to2/1 2/1to1/1 1/1to0/1 0/1to1/1" />
    </vehicle>
    <vehicle id="234" depart="234.00">
        <route edges="3/0to2/0 2/0to1/0 1/0to1/1 1/1to0/1 0/1to0/2 0/2to0/3" />
    </vehicle>
    <vehicle id="236" depart="236.00">
        <route edges="2/1to2/0 2/0to1/0 1/0to0/0 0/0to0/1" />
    </vehicle>
    <vehicle id="238" depart="238.00">
        <route edges="4/0to4/1 4/1to3/1 3/1to2/1 2/1to1/1 1/1to0/1 0/1to0/2 0/2to1/2" />
    </vehicle>
    <vehicle id="240" depart="240.00">
        <route edges="4/3to4/4 4/4to4/3 4/3to4/2" />
    </vehicle>
    <vehicle id="242" depart="242.00">
        <route edges="2/2to2/3 2/3to1/3" />
    </vehicle>
    <vehicle id="244" depart="244.00">
        <route edges="1/2to1/3 1/3to1/2 1/2to1/1 1/1to2/1 2/1to3/1 3/1to4/1 4/1to3/1" />
    </vehicle>
    <vehicle id="246" depart="246.00">
        <route edges="2/3to2/2" />
    </vehicle>
    <vehicle id="248" depart="248.00">
        <route edges="2/2to3/2 3/2to2/2 2/2to1/2 1/2to1/3" />
    </vehicle>
    <vehicle id="250" depart="250.00">
        <route edges="0/4to1/4 1/4to1/3 1/3to1/2 1/2to1/1 1/1to1/0 1/0to2/0 2/0to3/0 3/0to4/0" />
    </vehicle>
    <vehicle id="252" depart="252.00">
        <route edges="3/0to3/1 3/1to2/1 2/1to1/1 1/1to0/1 0/1to0/2 0/2to0/3" />
    </vehicle>
    <vehicle id="254" depart="254.00">
        <route edges="0/1to0/0 0/0to0/1 0/1to0/2 0/2to1/2 1/2to2/2 2/2to3/2 3/2to2/2" />
    </vehicle>
    <vehicle id="256" depart="256.00">
        <route edges="4/0to3/0 3/0to2/0 2/0to1/0" />
    </vehicle>
    <vehicle id="258" depart="258.00">
        <route edges="1/4to0/4 0/4to0/3 0/3to1/3 1/3to2/3 2/3to3/3 3/3to4/3 4/3to4/4" />
    </vehicle>
    <vehicle id="260" depart="260.00">
        <route edges="2/3to3/3 3/3to2/3 2/3to1/3 1/3to1/2 1/2to1/1 1/1to2/1" />
    </vehicle>
    <vehicle id="262" depart="262.00">
        <route edges="3/4to3/3 3/3to3/2 3/2to3/1 3/1to3/0 3/0to4/0 4/0to3/0" />
    </vehicle>
    <vehicle id="264" depart="264.00">
        <route edges="3/4to4/4 4/4to4/3 4/3to4/2 4/2to4/3" />
    </vehicle>
    <vehicle id="266" depart="266.00">
        <route edges="3/2to3/3 3/3to2/3 2/3to2/4 2/4to2/3" />
    </vehicle>
    <vehicle id="268" depart="268.00">
        <route edges="2/4to2/3 2/3to2/4 2/4to3/4 3/4to4/4" />
    </vehicle>
    <vehicle id="270" depart="270.00">
        <route edges="1/2to1/1 1/1to1/2 1/2to2/2 2/2to3/2 3/2to4/2 4/2to4/1" />
    </vehicle>
    <vehicle id="272" depart="272.00">
        <route edges="2/0to2/1 2/1to2/2 2/2to2/3 2/3to2/4 2/4to3/4 3/4to4/4" />
    </vehicle>
    <vehicle id="274" depart="274.00">
        <route edges="0/2to0/3 0/3to0/2 0/2to0/1 0/1to1/1 1/1to1/0" />
    </vehicle>
    <vehicle id="276" depart="276.00">
        <route edges="0/1to0/2 0/2to1/2 1/2to2/2 2/2to3/2 3/2to4/2 4/2to4/1" />
    </vehicle>
    <vehicle id="278" depart="278.00">
        <route edges="4/1to4/0 4/0to3/0 3/0to2/0 2/0to2/1 2/1to2/0" />
    </vehicle>
    <vehicle id="280" depart="280.00">
        <route edges="0/4to0/3 0/3to0/2 0/2to0/1 0/1to0/0 0/0to0/1" />
    </vehicle>
    <vehicle id="282" depart="282.00">
        <route edges="2/0to2/1 2/1to1/1 1/1to1/2 1/2to1/3 1/3to1/4" />
    </vehicle>
    <vehicle id="284" depart="284.00">
        <route edges="1/2to2/2 2/2to2/1 2/1to2/0 2/0to3/0" />
    </vehicle>
    <vehicle id="286" depart="286.00">
        <route edges="1/1to0/1 0/1to0/2 0/2to0/3 0/3to0/4 0/4to0/3" />
    </vehicle>
    <vehicle id="288" depart="288.00">
        <route edges="2/3to1/3 1/3to0/3 0/3to0/2 0/2to0/1 0/1to0/0 0/0to0/1" />
    </vehicle>
    <vehicle id="290" depart="290.00">
        <route edges="0/1to0/2 0/2to1/2 1/2to2/2 2/2to3/2 3/2to2/2" />
    </vehicle>
    <vehicle id="292" depart="292.00">
        <route edges="1/4to1/3 1/3to0/3" />
    </vehicle>
    <vehicle id="294" depart="294.00">
        <route edges="1/3to2/3 2/3to1/3 1/3to1/4 1/4to1/3" />
    </vehicle>
    <vehicle id="296" depart="296.00">
        <route edges="0/2to0/3 0/3to0/2 0/2to1/2 1/2to2/2 2/2to3/2 3/2to3/3" />
    </vehicle>
    <vehicle id="298" depart="298.00">
        <route edges="2/1to2/2 2/2to2/3 2/3to2/4" />
    </vehicle>
    <vehicle id="300" depart="300.00">
        <route edges="3/3to3/4 3/4to3/3 3/3to3/2 3/2to3/1 3/1to3/0 3/0to4/0" />
    </vehicle>
    <vehicle id="302" depart="302.00">
        <route edges="1/0to0/0 0/0to0/1 0/1to1/1 1/1to2/1 2/1to3/1 3/1to3/0" />
    </vehicle>
    <vehicle id="304" depart="304.00">
        <route edges="0/1to1/1 1/1to0/1 0/1to0/2 0/2to0/3 0/3to0/4 0/4to0/3" />
    </vehicle>
    <vehicle id="306" depart="306.00">
        <route edges="2/2to3/2 3/2to3/1 3/1to4/1 4/1to4/0" />
    </vehicle>
    <vehicle id="308" depart="308.00">
        <route edges="4/3to4/4 4/4to3/4 3/4to2/4 2/4to1/4 1/4to1/3 1/3to0/3 0/3to0/2 0/2to0/1 0/1to0/0" />
    </vehicle>
    <vehicle id="310" depart="310.00">
        <route edges="4/0to4/1 4/1to3/1 3/1to2/1 2/1to1/1 1/1to1/2" />
    </vehicle>
    <vehicle id="312" depart="312.00">
        <route edges="0/4to1/4 1/4to1/3 1/3to0/3 0/3to0/2 0/2to0/3" />
    </vehicle>
    <vehicle id="314" depart="314.00">
        <route edges="2/0to2/1 2/1to2/2 2/2to3/2 3/2to4/2 4/2to3/2" />
    </vehicle>
    <vehicle id="316" depart="316.00">
        <route edges="2/2to2/1 2/1to2/0 2/0to3/0 3/0to2/0" />
    </vehicle>
    <vehicle id="318" depart="318.00">
        <route edges="3/3to3/4 3/4to3/3 3/3to4/3 4/3to3/3" />
    </vehicle>
    <vehicle id="320" depart="320.00">
        <route edges="3/2to3/1 3/1to2/1 2/1to2/2 2/2to2/3 2/3to2/2" />
    </vehicle>
    <vehicle id="322" depart="322.00">
        <route edges="3/2to4/2 4/2to4/3" />
    </vehicle>
    <vehicle id="324" depart="324.00">
        <route edges="2/4to1/4 1/4to1/3 1/3to1/4" />
    </vehicle>
    <vehicle id="326" depart="326.00">
        <route edges="1/1to1/0 1/0to1/1 1/1to2/1 2/1to3/1 3/1to3/2" />
    </vehicle>
    <vehicle id="328" depart="328.00">
        <route edges="0/1to1/1 1/1to1/2 1/2to1/3 1/3to2/3 2/3to2/4" />
    </vehicle>
    <vehicle id="330" depart="330.00">
        <route edges="2/2to2/1 2/1to1/1 1/1to1/2 1/2to1/3 1/3to1/4 1/4to0/4" />
    </vehicle>
    <vehicle id="332" depart="332.00">
        <route edges="0/2to1/2 1/2to1/1 1/1to0/1" />
    </vehicle>
    <vehicle id="334" depart="334.00">
        <route edges="2/2to2/1 2/1to2/2 2/2to3/2 3/2to3/3" />
    </vehicle>
    <vehicle id="336" depart="336.00">
        <route edges="0/4to1/4 1/4to2/4 2/4to3/4 3/4to4/4" />
    </vehicle>
    <vehicle id="338" depart="338.00">
        <route edges="3/4to3/3 3/3to2/3 2/3to1/3 1/3to1/2 1/2to1/1" />
    </vehicle>
    <vehicle id="340" depart="340.00">
        <route edges="1/1to2/1 2/1to1/1 1/1to0/1 0/1to0/2 0/2to1/2" />
    </vehicle>
    <vehicle id="342" depart="342.00">
        <route edges="2/1to2/2 2/2to1/2 1/2to1/1 1/1to1/0 1/0to1/1" />
    </vehicle>
    <vehicle id="344" depart="344.00">
        <route edges="3/1to4/1 4/1to4/2 4/2to4/3 4/3to4/4 4/4to3/4" />
    </vehicle>
    <vehicle id="346" depart="346.00">
        <route edges="1/4to1/3 1/3to1/4 1/4to2/4 2/4to2/3" />
    </vehicle>
    <vehicle id="348" depart="348.00">
        <route edges="3/2to3/3 3/3to3/2 3/2to3/1 3/1to4/1 4/1to4/2" />
    </vehicle>
    <vehicle id="350" depart="350.00">
        <route edges="1/1to2/1 2/1to1/1 1/1to1/2 1/2to1/3 1/3to1/4 1/4to0/4" />
    </vehicle>
    <vehicle id="352" depart="352.00">
        <route edges="2/3to2/2 2/2to2/3 2/3to2/4 2/4to2/3" />
    </vehicle>
    <vehicle id="354" depart="354.00">
        <route edges="2/1to2/0 2/0to2/1 2/1to2/2 2/2to2/3 2/3to2/4 2/4to3/4 3/4to4/4 4/4to4/3" />
    </vehicle>
    <vehicle id="356" depart="356.00">
        <route edges="3/0to4/0 4/0to3/0 3/0to3/1 3/1to3/2 3/2to3/3 3/3to2/3" />
    </vehicle>
    <vehicle id="358" depart="358.00">
        <route edges="3/3to2/3 2/3to1/3 1/3to0/3 0/3to0/2 0/2to0/1 0/1to0/2" />
    </vehicle>
    <vehicle id="360" depart="360.00">
        <route edges="0/3to0/4 0/4to0/3 0/3to1/3" />
    </vehicle>
    <vehicle id="362" depart="362.00">
        <route edges="2/3to3/3 3/3to2/3 2/3to2/2 2/2to3/2" />
    </vehicle>
    <vehicle id="364" depart="364.00">
        <route edges="4/3to3/3 3/3to3/2 3/2to2/2" />
    </vehicle>
    <vehicle id="366" depart="366.00">
        <route edges="0/2to0/3 0/3to0/2 0/2to0/1 0/1to1/1 1/1to2/1 2/1to2/0" />
    </vehicle>
    <vehicle id="368" depart="368.00">
        <route edges="0/1to0/0 0/0to0/1 0/1to0/2 0/2to0/3 0/3to1/3 1/3to2/3 2/3to2/2" />
    </vehicle>
    <vehicle id="370" depart="370.00">
        <route edges="4/0to4/1 4/1to3/1 3/1to2/1 2/1to1/1 1/1to1/2 1/2to1/3 1/3to0/3" />
    </vehicle>
    <vehicle id="372" depart="372.00">
        <route edges="3/4to3/3 3/3to2/3 2/3to1/3 1/3to1/2 1/2to1/1 1/1to1/0 1/0to2/0" />
    </vehicle>
    <vehicle id="374" depart="374.00">
        <route edges="1/4to1/3 1/3to1/2 1/2to1/1 1/1to1/0 1/0to2/0 2/0to3/0" />
    </vehicle>
    <vehicle id="376" depart="376.00">
        <route edges="3/2to2/2 2/2to1/2 1/2to1/1 1/1to2/1" />
    </vehicle>
    <vehicle id="378" depart="378.00">
        <route edges="3/3to3/4 3/4to2/4 2/4to3/4" />
    </vehicle>
    <vehicle id="380" depart="380.00">
        <route edges="2/0to3/0 3/0to3/1 3/1to4/1 4/1to4/0" />
    </vehicle>
    <vehicle id="382" depart="382.00">
        <route edges="0/2to1/2 1/2to0/2 0/2to0/3 0/3to0/2" />
    </vehicle>
    <vehicle id="384" depart="384.00">
        <route edges="1/4to2/4 2/4to1/4 1/4to0/4 0/4to1/4" />
    </vehicle>
    <vehicle id="386" depart="386.00">
        <route edges="1/1to2/1 2/1to2/2 2/2to2/3 2/3to3/3 3/3to2/3" />
    </vehicle>
    <vehicle id="388" depart="388.00">
        <route edges="4/2to4/1 4/1to3/1 3/1to2/1 2/1to1/1 1/1to0/1 0/1to0/2 0/2to0/3 0/3to0/4 0/4to0/3" />
    </vehicle>
    <vehicle id="390" depart="390.00">
        <route edges="0/3to0/2 0/2to0/1 0/1to1/1 1/1to2/1 2/1to3/1 3/1to4/1" />
    </vehicle>
    <vehicle id="392" depart="392.00">
        <route edges="1/1to1/2 1/2to1/1 1/1to2/1 2/1to3/1 3/1to2/1" />
    </vehicle>
    <vehicle id="394" depart="394.00">
        <route edges="2/2to2/1 2/1to1/1 1/1to1/2 1/2to1/3 1/3to1/4 1/4to2/4" />
    </vehicle>
    <vehicle id="396" depart="396.00">
        <route edges="1/3to2/3 2/3to3/3 3/3to4/3 4/3to4/2" />
    </vehicle>
    <vehicle id="398" depart="398.00">
        <route edges="4/2to4/3 4/3to3/3 3/3to2/3 2/3to1/3 1/3to0/3 0/3to0/4 0/4to0/3" />
    </vehicle>
    <vehicle id="400" depart="400.00">
        <route edges="3/2to2/2" />
    </vehicle>
    <vehicle id="402" depart="402.00">
        <route edges="1/4to2/4 2/4to2/3 2/3to2/2 2/2to2/1 2/1to3/1 3/1to4/1" />
    </vehicle>
    <vehicle id="404" depart="404.00">
        <route edges="3/2to3/3 3/3to2/3 2/3to2/2 2/2to2/3" />
    </vehicle>
    <vehicle id="406" depart="406.00">
        <route edges="3/3to4/3 4/3to3/3 3/3to2/3 2/3to1/3 1/3to0/3 0/3to0/4 0/4to1/4" />
    </vehicle>
    <vehicle id="408" depart="408.00">
        <route edges="2/4to1/4 1/4to1/3 1/3to2/3 2/3to2/4" />
    </vehicle>
    <vehicle id="410" depart="410.00">
        <route edges="2/0to3/0 3/0to2/0 2/0to1/0 1/0to1/1 1/1to1/2 1/2to1/1" />
    </vehicle>
    <vehicle id="412" depart="412.00">
        <route edges="4/3to3/3 3/3to3/4" />
    </vehicle>
    <vehicle id="414" depart="414.00">
        <route edges="2/1to2/2 2/2to2/3 2/3to3/3 3/3to4/3 4/3to4/2" />
    </vehicle>
    <vehicle id="416" depart="416.00">
        <route edges="0/0to0/1 0/1to0/2 0/2to0/3 0/3to1/3 1/3to1/4 1/4to2/4 2/4to3/4" />
    </vehicle>
    <vehicle id="418" depart="418.00">
        <route edges="4/3to4/4 4/4to3/4 3/4to3/3 3/3to3/2 3/2to4/2" />
    </vehicle>
    <vehicle id="420" depart="420.00">
        <route edges="2/1to1/1 1/1to1/2 1/2to1/3 1/3to1/4 1/4to0/4" />
    </vehicle>
    <vehicle id="422" depart="422.00">
        <route edges="0/3to0/2 0/2to0/3 0/3to1/3 1/3to2/3 2/3to2/2" />
    </vehicle>
    <vehicle id="424" depart="424.00">
        <route edges="2/4to1/4 1/4to2/4 2/4to3/4 3/4to4/4" />
    </vehicle>
    <vehicle id="426" depart="426.00">
        <route edges="0/0to0/1 0/1to0/2 0/2to0/3 0/3to1/3 1/3to2/3 2/3to2/4" />
    </vehicle>
    <vehicle id="428" depart="428.00">
        <route edges="1/4to0/4 0/4to0/3 0/3to0/2 0/2to0/1 0/1to1/1 1/1to1/0 1/0to2/0 2/0to3/0 3/0to4/0 4/0to4/1" />
    </vehicle>
    <vehicle id="430" depart="430.00">
        <route edges="2/2to3/2 3/2to2/2 2/2to1/2 1/2to0/2 0/2to0/1 0/1to1/1" />
    </vehicle>
    <vehicle id="432" depart="432.00">
        <route edges="4/2to4/1 4/1to3/1 3/1to2/1 2/1to1/1 1/1to1/2 1/2to1/3 1/3to1/2" />
    </vehicle>
    <vehicle id="434" depart="434.00">
        <route edges="0/1to1/1 1/1to2/1 2/1to2/2" />
    </vehicle>
    <vehicle id="436" depart="436.00">
        <route edges="3/0to4/0 4/0to3/0 3/0to2/0 2/0to1/0" />
    </vehicle>
    <vehicle id="438" depart="438.00">
        <route edges="2/2to3/2 3/2to2/2 2/2to1/2 1/2to0/2 0/2to0/3 0/3to0/4 0/4to0/3" />
    </vehicle>
    <vehicle id="440" depart="440.00">
        <route edges="1/3to1/4 1/4to1/3 1/3to0/3 0/3to0/2 0/2to0/1 0/1to0/0 0/0to1/0" />
    </vehicle>
    <vehicle id="442" depart="442.00">
        <route edges="3/2to3/3 3/3to2/3 2/3to2/2 2/2to2/1 2/1to2/2" />
    </vehicle>
    <vehicle id="444" depart="444.00">
        <route edges="2/0to3/0 3/0to3/1 3/1to3/2 3/2to3/3 3/3to4/3 4/3to3/3" />
    </vehicle>
    <vehicle id="446" depart="446.00">
        <route edges="1/4to0/4 0/4to0/3 0/3to0/2 0/2to0/1 0/1to1/1 1/1to2/1 2/1to2/0" />
    </vehicle>
    <vehicle id="448" depart="448.00">
        <route edges="0/1to1/1 1/1to0/1 0/1to0/0 0/0to0/1" />
    </vehicle>
    <vehicle id="450" depart="450.00">
        <route edges="2/3to2/2 2/2to1/2 1/2to1/3 1/3to1/4 1/4to0/4" />
    </vehicle>
    <vehicle id="452" depart="452.00">
        <route edges="2/3to2/4 2/4to1/4 1/4to1/3 1/3to0/3 0/3to0/2 0/2to0/1 0/1to0/0 0/0to1/0" />
    </vehicle>
    <vehicle id="454" depart="454.00">
        <route edges="2/4to3/4 3/4to2/4 2/4to2/3 2/3to2/2 2/2to2/1 2/1to2/0 2/0to3/0" />
    </vehicle>
    <vehicle id="456" depart="456.00">
        <route edges="3/2to3/3 3/3to2/3 2/3to1/3 1/3to1/2 1/2to1/1" />
    </vehicle>
    <vehicle id="458" depart="458.00">
        <route edges="0/1to1/1 1/1to1/0 1/0to2/0 2/0to3/0 3/0to3/1" />
    </vehicle>
    <vehicle id="460" depart="460.00">
        <route edges="0/0to1/0 1/0to1/1 1/1to1/2 1/2to1/3 1/3to0/3" />
    </vehicle>
    <vehicle id="462" depart="462.00">
        <route edges="1/2to0/2 0/2to0/1 0/1to1/1 1/1to1/2" />
    </vehicle>
    <vehicle id="464" depart="464.00">
        <route edges="3/3to3/4 3/4to2/4 2/4to1/4 1/4to1/3 1/3to0/3 0/3to0/4" />
    </vehicle>
    <vehicle id="466" depart="466.00">
        <route edges="0/4to1/4 1/4to0/4" />
    </vehicle>
    <vehicle id="468" depart="468.00">
        <route edges="0/4to1/4 1/4to1/3 1/3to2/3 2/3to1/3" />
    </vehicle>
    <vehicle id="470" depart="470.00">
        <route edges="4/2to3/2 3/2to3/1 3/1to3/0 3/0to3/1" />
    </vehicle>
    <vehicle id="472" depart="472.00">
        <route edges="0/3to0/2 0/2to0/1 0/1to1/1 1/1to2/1 2/1to3/1 3/1to3/2" />
    </vehicle>
    <vehicle id="474" depart="474.00">
        <route edges="2/3to1/3 1/3to1/2 1/2to2/2 2/2to2/1" />
    </vehicle>
    <vehicle id="476" depart="476.00">
        <route edges="1/2to1/3 1/3to1/2 1/2to2/2 2/2to2/1" />
    </vehicle>
    <vehicle id="478" depart="478.00">
        <route edges="0/2to0/1 0/1to1/1 1/1to2/1 2/1to2/0" />
    </vehicle>